/*--------------------------------*- C++ -*----------------------------------*\
| =========                 |                                                 |
| \\      /  F ield         | OpenFOAM: The Open Source CFD Toolbox           |
|  \\    /   O peration     | Version:  v1906                                 |
|   \\  /    A nd           | Web:      www.OpenFOAM.com                      |
|    \\/     M anipulation  |                                                 |
\*---------------------------------------------------------------------------*/
FoamFile
{
	version		2.0;
	format		ascii;
	class			volScalarField;
	location	"0";
	object		alphat;
}
// * * * * * * * * * * * * * * * * * * * * * * * * * * * * * * * * * * * * * //
dimensions		[1 -1 -1 0 0 0 0];

internalField		uniform	1e-6;

boundaryField
{
	inlet
	{
		type				zeroGradient;
	}

	outlet
	{
		type				zeroGradient;
	}

	wall_in
	{
		type				compressible::alphatWallFunction;
		value			uniform 1e-6;
	}

	wall
	{
		type				compressible::alphatWallFunction;
		value			uniform 1e-6;
	}

	back
	{
		type				wedge;
	}

	front
	{
		type				wedge;
	}

	axis
	{
		type				empty;
	}
}

// ************************************************************************* //
