/*--------------------------------*- C++ -*----------------------------------*\
| =========                 |                                                 |
| \\      /  F ield         | OpenFOAM: The Open Source CFD Toolbox           |
|  \\    /   O peration     | Version:  v1906                                 |
|   \\  /    A nd           | Web:      www.OpenFOAM.com                      |
|    \\/     M anipulation  |                                                 |
\*---------------------------------------------------------------------------*/
FoamFile
{
	version		2.0;
	format		ascii;
	class			dictionary;
	location	"system";
	object		fvSolution;
}
// * * * * * * * * * * * * * * * * * * * * * * * * * * * * * * * * * * * * * //
solvers
{
	p
	{
		solver					GAMG;
		smoother				GaussSeidel;
		tolerance				1e-06;
		relTol					0.001;
		maxIter					500;
		nPreSweeps				0;
		nPostSweeps				2;
		cacheAgglomeration		on;
		agglomerator			faceAreaPair;
		nCellsInCoarsestLevel	1000;
		mergeLevels				1;
	}

	"(U|k|epsilon|h)"
	{
		solver					PBiCGStab;
		preconditioner			DILU;
		tolerance				1e-8;
		relTol					0;
	}
}

PIMPLE
{
	momentumPredictor   on;
    nOuterCorrectors    50;
    nCorrectors         3;
    turbOnFinalIterOnly no;
	nNonOrthogonalCorrectors	2;
	consistent					yes;
	pMinFactor					0.1;
	pMaxFactor					2;

	residualControl
	{
		//U					1e-6;
		Ux					1e-3;
		Uy					1e-3;
		Uz					1e-6;
		p					5e-6;
		h					1e-6;
		"(k|epsilon)"		1e-6;
	}
}

SIMPLE
{
	nNonOrthogonalCorrectors	2;
	consistent					yes;
	pMinFactor					0.1;
	pMaxFactor					2;

	residualControl
	{
		//U					1e-6;
		Ux					1e-3;
		Uy					1e-3;
		Uz					1e-6;
		p					5e-6;
		h					1e-6;
		"(k|epsilon)"		1e-6;
	}
}

relaxationFactors
{
	fields
	{
		p					0.3;
		rho					1.0;
	}
	equations
	{
		h					0.8;
		U					0.7;
		"(k|epsilon)*"		0.7;
	}
}

// ************************************************************************* //
