/*--------------------------------*- C++ -*----------------------------------*\
| =========                 |                                                 |
| \\      /  F ield         | OpenFOAM: The Open Source CFD Toolbox           |
|  \\    /   O peration     | Version:  5                                     |
|   \\  /    A nd           | Web:      www.OpenFOAM.org                      |
|    \\/     M anipulation  |                                                 |
\*---------------------------------------------------------------------------*/
FoamFile
{
	version		2.0;
	format		ascii;
	class			dictionary;
	location	"system";
	object		controlDict;
}
// * * * * * * * * * * * * * * * * * * * * * * * * * * * * * * * * * * * * * //
application				rhoSimpleFoam;

startFrom				startTime;

startTime				0;

stopAt					endTime;

endTime					2500; //10; //10000;

deltaT					1;

writeControl			timeStep;

writeInterval			$endTime;

purgeWrite				0;

writeFormat				ascii;

writePrecision 			8;

writeCompression	on;

timeFormat				general;

timePrecision			6;

runTimeModifiable	true;

functions
{
    #include "streamSets"
}

// ************************************************************************* //
